LTspice 26.0.2 for Windows
Circuit: D:\WORKSPACE\0025_dc_filter\dc_filter.net
Start Time: Sat Jul  4 17:16:29 2026
solver = Normal
Maximum thread count: 16
tnom = 27
temp = 27
method = trap
C9: Increased Cpar to 5e-12
C10: Increased Cpar to 5e-12
C11: Increased Cpar to 5e-12
C12: Increased Cpar to 5e-12
No AC stimulus found:
     Set the value of a current or voltage source to "AC 1."
     to make it behave as a signal generator for AC analysis.
Direct Newton iteration succeeded in finding operating point.
Total elapsed time: 0.059 seconds.

Files loaded:
D:\WORKSPACE\0025_dc_filter\dc_filter.net

