LTspice 26.0.2 for Windows
Circuit: D:\WORKSPACE\0025_dc_filter\dc_filter.net
Start Time: Sun Jul  5 21:31:35 2026
solver = Normal
Maximum thread count: 16
tnom = 27
temp = 27
method = trap
C9: Increased Cpar to 5e-12
C10: Increased Cpar to 5e-12
C11: Increased Cpar to 5e-12
C12: Increased Cpar to 5e-12
.OP point found by inspection.
.OP point found by inspection.
Total elapsed time: 0.031 seconds.

Files loaded:
D:\WORKSPACE\0025_dc_filter\dc_filter.net

