LTspice 26.0.2 for Windows
Circuit: D:\WORKSPACE\0025_dc_filter\dc_filter.net
Start Time: Mon Jul  6 18:17:46 2026
solver = Normal
Maximum thread count: 16
tnom = 27
temp = 27
method = trap
.OP point found by inspection.
.OP point found by inspection.
Total elapsed time: 0.079 seconds.

Files loaded:
D:\WORKSPACE\0025_dc_filter\dc_filter.net

